HMDB0004995
     RDKit          3D
Codeine
 43 47  0  0  0  0  0  0  0  0999 V2000
    5.2862   -0.4710   -0.5949 C   0  0  0  0  0  0  0  0  0  0  0  0
    4.1019    0.0553   -0.0852 O   0  0  0  0  0  0  0  0  0  0  0  0
    2.8389   -0.3722   -0.3872 C   0  0  0  0  0  0  0  0  0  0  0  0
    2.6336   -1.4296   -1.2812 C   0  0  0  0  0  0  0  0  0  0  0  0
    1.3511   -1.8447   -1.5720 C   0  0  0  0  0  0  0  0  0  0  0  0
    0.2529   -1.2285   -0.9894 C   0  0  0  0  0  0  0  0  0  0  0  0
    0.5154   -0.2151   -0.1349 C   0  0  0  0  0  0  0  0  0  0  0  0
    1.7535    0.2544    0.2034 C   0  0  0  0  0  0  0  0  0  0  0  0
    1.5692    1.2996    1.1031 O   0  0  0  0  0  0  0  0  0  0  0  0
    0.2343    1.8208    0.8973 C   0  0  1  0  0  0  0  0  0  0  0  0
    0.1648    2.8659   -0.1437 C   0  0  1  0  0  0  0  0  0  0  0  0
    1.4338    3.3367   -0.4778 O   0  0  0  0  0  0  0  0  0  0  0  0
   -0.5006    2.4422   -1.3948 C   0  0  0  0  0  0  0  0  0  0  0  0
   -1.3560    1.4313   -1.4989 C   0  0  0  0  0  0  0  0  0  0  0  0
   -1.6845    0.6602   -0.3013 C   0  0  1  0  0  0  0  0  0  0  0  0
   -2.1189   -0.7526   -0.5807 C   0  0  1  0  0  0  0  0  0  0  0  0
   -1.1309   -1.6191   -1.2707 C   0  0  0  0  0  0  0  0  0  0  0  0
   -2.5982   -1.3977    0.5937 N   0  0  0  0  0  0  0  0  0  0  0  0
   -4.0144   -1.2457    0.8139 C   0  0  0  0  0  0  0  0  0  0  0  0
   -1.8017   -1.2840    1.7576 C   0  0  0  0  0  0  0  0  0  0  0  0
   -0.8771   -0.1474    1.8498 C   0  0  0  0  0  0  0  0  0  0  0  0
   -0.5121    0.5651    0.6026 C   0  0  1  0  0  0  0  0  0  0  0  0
    5.5595    0.0522   -1.5553 H   0  0  0  0  0  0  0  0  0  0  0  0
    5.2690   -1.5403   -0.8182 H   0  0  0  0  0  0  0  0  0  0  0  0
    6.1173   -0.3101    0.1420 H   0  0  0  0  0  0  0  0  0  0  0  0
    3.4857   -1.9136   -1.7379 H   0  0  0  0  0  0  0  0  0  0  0  0
    1.1323   -2.6605   -2.2591 H   0  0  0  0  0  0  0  0  0  0  0  0
   -0.0823    2.2061    1.8813 H   0  0  0  0  0  0  0  0  0  0  0  0
   -0.4100    3.7515    0.2445 H   0  0  0  0  0  0  0  0  0  0  0  0
    1.5634    4.2847   -0.2588 H   0  0  0  0  0  0  0  0  0  0  0  0
   -0.2486    3.0318   -2.2966 H   0  0  0  0  0  0  0  0  0  0  0  0
   -1.7643    1.2422   -2.4968 H   0  0  0  0  0  0  0  0  0  0  0  0
   -2.5278    1.1370    0.2503 H   0  0  0  0  0  0  0  0  0  0  0  0
   -3.0119   -0.6551   -1.2695 H   0  0  0  0  0  0  0  0  0  0  0  0
   -1.3221   -1.6251   -2.3892 H   0  0  0  0  0  0  0  0  0  0  0  0
   -1.2630   -2.6629   -0.9082 H   0  0  0  0  0  0  0  0  0  0  0  0
   -4.5309   -2.0689    0.2615 H   0  0  0  0  0  0  0  0  0  0  0  0
   -4.4194   -0.2856    0.4631 H   0  0  0  0  0  0  0  0  0  0  0  0
   -4.1868   -1.3319    1.9199 H   0  0  0  0  0  0  0  0  0  0  0  0
   -1.2307   -2.2521    1.8761 H   0  0  0  0  0  0  0  0  0  0  0  0
   -2.4877   -1.2689    2.6460 H   0  0  0  0  0  0  0  0  0  0  0  0
   -1.2703    0.6274    2.5730 H   0  0  0  0  0  0  0  0  0  0  0  0
    0.0874   -0.4818    2.3363 H   0  0  0  0  0  0  0  0  0  0  0  0
  1  2  1  0
  2  3  1  0
  3  4  2  0
  4  5  1  0
  5  6  2  0
  6  7  1  0
  7  8  2  0
  8  9  1  0
  9 10  1  0
 10 11  1  0
 11 12  1  0
 11 13  1  0
 13 14  2  0
 14 15  1  0
 15 16  1  0
 16 17  1  0
 16 18  1  0
 18 19  1  0
 18 20  1  0
 20 21  1  0
 22 21  1  1
  8  3  1  0
 22 10  1  0
 17  6  1  0
 22  7  1  0
 22 15  1  0
  1 23  1  0
  1 24  1  0
  1 25  1  0
  4 26  1  0
  5 27  1  0
 10 28  1  1
 11 29  1  1
 12 30  1  0
 13 31  1  0
 14 32  1  0
 15 33  1  1
 16 34  1  6
 17 35  1  0
 17 36  1  0
 19 37  1  0
 19 38  1  0
 19 39  1  0
 20 40  1  0
 20 41  1  0
 21 42  1  0
 21 43  1  0
M  END
